FoamFile
{
    version     2.0;
    format      ascii;
    class       dictionary;
    location    "constant";
    object      thermophysicalProperties.water;
}

thermoType
{
    type            heRhoThermo;
    mixture         pureMixture;
    transport       const;
    thermo          eConst;
    equationOfState rhoConst;
    specie          specie;
    energy          sensibleInternalEnergy;
}

mixture
{
    specie
    {
        molWeight   18;
    }
    equationOfState
    {
        rho         1000;
    }
    thermodynamics
    {
        Cv          1000;
        Hf          0;
    }
    transport
    {
        mu          1e-3;
        Pr          1;
    }
}
