FoamFile
{
    format      ascii;
    class       dictionary;
    object      phaseProperties;
}

phases (air water);

populationBalances (bubbles);

air
{
    type            purePhaseModel;
    diameterModel   velocityGroup;

    velocityGroupCoeffs
    {
        populationBalance    bubbles;

        shapeModel           spherical;

        sizeGroups
        (
            #include "FPT/sizeGroups"
        );
    }

    residualAlpha   1e-6;
}

water
{
    type            pureIsothermalPhaseModel;

    diameterModel   constant;

    constantCoeffs
    {
        d           1e-4;
    }

    residualAlpha   1e-6;
}

populationBalanceCoeffs
{
    bubbles
    {
        continuousPhase water;

        coalescenceModels
        (
            LehrMilliesMewes
            {
                uCrit   0.01;
            }
        );

        binaryBreakupModels
        (
            LehrMilliesMewes{}
        );

        breakupModels
        ();

        driftModels
        ();

        nucleationModels
        ();
    }

}

blending
{
    default
    {
        type            linear;
        minFullyContinuousAlpha.air 0.7;
        minPartlyContinuousAlpha.air 0.3;
        minFullyContinuousAlpha.water 0.7;
        minPartlyContinuousAlpha.water 0.3;
    }

    drag
    {
        type            linear;
        minFullyContinuousAlpha.air 0.7;
        minPartlyContinuousAlpha.air 0.5;
        minFullyContinuousAlpha.water 0.7;
        minPartlyContinuousAlpha.water 0.5;
    }
}

surfaceTension
{
    air_water
    {
        type    constant;
        sigma   0.06;
    }
}

interfaceCompression
{
    air_water   1;
}

aspectRatio
{
    air_dispersedIn_water
    {
        type Wellek;
    }
}
